Get the name of the MODPATH simulation file.
Read the first two records of the simulation file to get mpnamFile and mplistFile ...
Allocate rectangular unstructured grid component.
Allocate time discretization data component ...
Allocate disMf6Grid.
Read DIS binary grid file.
Read time discretization data component ...
 
 ----------------------------------------------------------
 Cell connection data:
 ----------------------------------------------------------
 Format has two lines for each cell, listed by cell number.
 Line 1: Cell connections
 Line 1: Face assignment codes
 ----------------------------------------------------------
        1       2      21
        0   20101   30101
 
        2       1       3      22
        0   10101   20101   30101
 
        3       2       4      23
        0   10101   20101   30101
 
        4       3       5      24
        0   10101   20101   30101
 
        5       4       6      25
        0   10101   20101   30101
 
        6       5       7      26
        0   10101   20101   30101
 
        7       6       8      27
        0   10101   20101   30101
 
        8       7       9      28
        0   10101   20101   30101
 
        9       8      10      29
        0   10101   20101   30101
 
       10       9      11      30
        0   10101   20101   30101
 
       11      10      12      31
        0   10101   20101   30101
 
       12      11      13      32
        0   10101   20101   30101
 
       13      12      14      33
        0   10101   20101   30101
 
       14      13      15      34
        0   10101   20101   30101
 
       15      14      16      35
        0   10101   20101   30101
 
       16      15      17      36
        0   10101   20101   30101
 
       17      16      18      37
        0   10101   20101   30101
 
       18      17      19      38
        0   10101   20101   30101
 
       19      18      20      39
        0   10101   20101   30101
 
       20      19      40
        0   10101   30101
 
       21       1      22      41
        0   40101   20101   30101
 
       22       2      21      23      42
        0   40101   10101   20101   30101
 
       23       3      22      24      43
        0   40101   10101   20101   30101
 
       24       4      23      25      44
        0   40101   10101   20101   30101
 
       25       5      24      26      45
        0   40101   10101   20101   30101
 
       26       6      25      27      46
        0   40101   10101   20101   30101
 
       27       7      26      28      47
        0   40101   10101   20101   30101
 
       28       8      27      29      48
        0   40101   10101   20101   30101
 
       29       9      28      30      49
        0   40101   10101   20101   30101
 
       30      10      29      31      50
        0   40101   10101   20101   30101
 
       31      11      30      32      51
        0   40101   10101   20101   30101
 
       32      12      31      33      52
        0   40101   10101   20101   30101
 
       33      13      32      34      53
        0   40101   10101   20101   30101
 
       34      14      33      35      54
        0   40101   10101   20101   30101
 
       35      15      34      36      55
        0   40101   10101   20101   30101
 
       36      16      35      37      56
        0   40101   10101   20101   30101
 
       37      17      36      38      57
        0   40101   10101   20101   30101
 
       38      18      37      39      58
        0   40101   10101   20101   30101
 
       39      19      38      40      59
        0   40101   10101   20101   30101
 
       40      20      39      60
        0   40101   10101   30101
 
       41      21      42      61
        0   40101   20101   30101
 
       42      22      41      43      62
        0   40101   10101   20101   30101
 
       43      23      42      44      63
        0   40101   10101   20101   30101
 
       44      24      43      45      64
        0   40101   10101   20101   30101
 
       45      25      44      46      65
        0   40101   10101   20101   30101
 
       46      26      45      47      66
        0   40101   10101   20101   30101
 
       47      27      46      48      67
        0   40101   10101   20101   30101
 
       48      28      47      49      68
        0   40101   10101   20101   30101
 
       49      29      48      50      69
        0   40101   10101   20101   30101
 
       50      30      49      51      70
        0   40101   10101   20101   30101
 
       51      31      50      52      71
        0   40101   10101   20101   30101
 
       52      32      51      53      72
        0   40101   10101   20101   30101
 
       53      33      52      54      73
        0   40101   10101   20101   30101
 
       54      34      53      55      74
        0   40101   10101   20101   30101
 
       55      35      54      56      75
        0   40101   10101   20101   30101
 
       56      36      55      57      76
        0   40101   10101   20101   30101
 
       57      37      56      58      77
        0   40101   10101   20101   30101
 
       58      38      57      59      78
        0   40101   10101   20101   30101
 
       59      39      58      60      79
        0   40101   10101   20101   30101
 
       60      40      59      80
        0   40101   10101   30101
 
       61      41      62      81
        0   40101   20101   30101
 
       62      42      61      63      82
        0   40101   10101   20101   30101
 
       63      43      62      64      83
        0   40101   10101   20101   30101
 
       64      44      63      65      84
        0   40101   10101   20101   30101
 
       65      45      64      66      85
        0   40101   10101   20101   30101
 
       66      46      65      67      86
        0   40101   10101   20101   30101
 
       67      47      66      68      87
        0   40101   10101   20101   30101
 
       68      48      67      69      88
        0   40101   10101   20101   30101
 
       69      49      68      70      89
        0   40101   10101   20101   30101
 
       70      50      69      71      90
        0   40101   10101   20101   30101
 
       71      51      70      72      91
        0   40101   10101   20101   30101
 
       72      52      71      73      92
        0   40101   10101   20101   30101
 
       73      53      72      74      93
        0   40101   10101   20101   30101
 
       74      54      73      75      94
        0   40101   10101   20101   30101
 
       75      55      74      76      95
        0   40101   10101   20101   30101
 
       76      56      75      77      96
        0   40101   10101   20101   30101
 
       77      57      76      78      97
        0   40101   10101   20101   30101
 
       78      58      77      79      98
        0   40101   10101   20101   30101
 
       79      59      78      80      99
        0   40101   10101   20101   30101
 
       80      60      79     100
        0   40101   10101   30101
 
       81      61      82     101
        0   40101   20101   30101
 
       82      62      81      83     102
        0   40101   10101   20101   30101
 
       83      63      82      84     103
        0   40101   10101   20101   30101
 
       84      64      83      85     104
        0   40101   10101   20101   30101
 
       85      65      84      86     105
        0   40101   10101   20101   30101
 
       86      66      85      87     106
        0   40101   10101   20101   30101
 
       87      67      86      88     107
        0   40101   10101   20101   30101
 
       88      68      87      89     108
        0   40101   10101   20101   30101
 
       89      69      88      90     109
        0   40101   10101   20101   30101
 
       90      70      89      91     110
        0   40101   10101   20101   30101
 
       91      71      90      92     111
        0   40101   10101   20101   30101
 
       92      72      91      93     112
        0   40101   10101   20101   30101
 
       93      73      92      94     113
        0   40101   10101   20101   30101
 
       94      74      93      95     114
        0   40101   10101   20101   30101
 
       95      75      94      96     115
        0   40101   10101   20101   30101
 
       96      76      95      97     116
        0   40101   10101   20101   30101
 
       97      77      96      98     117
        0   40101   10101   20101   30101
 
       98      78      97      99     118
        0   40101   10101   20101   30101
 
       99      79      98     100     119
        0   40101   10101   20101   30101
 
      100      80      99     120
        0   40101   10101   30101
 
      101      81     102     121
        0   40101   20101   30101
 
      102      82     101     103     122
        0   40101   10101   20101   30101
 
      103      83     102     104     123
        0   40101   10101   20101   30101
 
      104      84     103     105     124
        0   40101   10101   20101   30101
 
      105      85     104     106     125
        0   40101   10101   20101   30101
 
      106      86     105     107     126
        0   40101   10101   20101   30101
 
      107      87     106     108     127
        0   40101   10101   20101   30101
 
      108      88     107     109     128
        0   40101   10101   20101   30101
 
      109      89     108     110     129
        0   40101   10101   20101   30101
 
      110      90     109     111     130
        0   40101   10101   20101   30101
 
      111      91     110     112     131
        0   40101   10101   20101   30101
 
      112      92     111     113     132
        0   40101   10101   20101   30101
 
      113      93     112     114     133
        0   40101   10101   20101   30101
 
      114      94     113     115     134
        0   40101   10101   20101   30101
 
      115      95     114     116     135
        0   40101   10101   20101   30101
 
      116      96     115     117     136
        0   40101   10101   20101   30101
 
      117      97     116     118     137
        0   40101   10101   20101   30101
 
      118      98     117     119     138
        0   40101   10101   20101   30101
 
      119      99     118     120     139
        0   40101   10101   20101   30101
 
      120     100     119     140
        0   40101   10101   30101
 
      121     101     122     141
        0   40101   20101   30101
 
      122     102     121     123     142
        0   40101   10101   20101   30101
 
      123     103     122     124     143
        0   40101   10101   20101   30101
 
      124     104     123     125     144
        0   40101   10101   20101   30101
 
      125     105     124     126     145
        0   40101   10101   20101   30101
 
      126     106     125     127     146
        0   40101   10101   20101   30101
 
      127     107     126     128     147
        0   40101   10101   20101   30101
 
      128     108     127     129     148
        0   40101   10101   20101   30101
 
      129     109     128     130     149
        0   40101   10101   20101   30101
 
      130     110     129     131     150
        0   40101   10101   20101   30101
 
      131     111     130     132     151
        0   40101   10101   20101   30101
 
      132     112     131     133     152
        0   40101   10101   20101   30101
 
      133     113     132     134     153
        0   40101   10101   20101   30101
 
      134     114     133     135     154
        0   40101   10101   20101   30101
 
      135     115     134     136     155
        0   40101   10101   20101   30101
 
      136     116     135     137     156
        0   40101   10101   20101   30101
 
      137     117     136     138     157
        0   40101   10101   20101   30101
 
      138     118     137     139     158
        0   40101   10101   20101   30101
 
      139     119     138     140     159
        0   40101   10101   20101   30101
 
      140     120     139     160
        0   40101   10101   30101
 
      141     121     142     161
        0   40101   20101   30101
 
      142     122     141     143     162
        0   40101   10101   20101   30101
 
      143     123     142     144     163
        0   40101   10101   20101   30101
 
      144     124     143     145     164
        0   40101   10101   20101   30101
 
      145     125     144     146
        0   40101   10101   20101
 
      146     126     145     147
        0   40101   10101   20101
 
      147     127     146     148
        0   40101   10101   20101
 
      148     128     147     149     168
        0   40101   10101   20101   30101
 
      149     129     148     150     169
        0   40101   10101   20101   30101
 
      150     130     149     151     170
        0   40101   10101   20101   30101
 
      151     131     150     152     171
        0   40101   10101   20101   30101
 
      152     132     151     153     172
        0   40101   10101   20101   30101
 
      153     133     152     154     173
        0   40101   10101   20101   30101
 
      154     134     153     155     174
        0   40101   10101   20101   30101
 
      155     135     154     156     175
        0   40101   10101   20101   30101
 
      156     136     155     157     176
        0   40101   10101   20101   30101
 
      157     137     156     158     177
        0   40101   10101   20101   30101
 
      158     138     157     159     178
        0   40101   10101   20101   30101
 
      159     139     158     160     179
        0   40101   10101   20101   30101
 
      160     140     159     180
        0   40101   10101   30101
 
      161     141     162     181
        0   40101   20101   30101
 
      162     142     161     163     182
        0   40101   10101   20101   30101
 
      163     143     162     164     183
        0   40101   10101   20101   30101
 
      164     144     163     184
        0   40101   10101   30101
 


 


 


 
      168     148     169
        0   40101   20101
 
      169     149     168     170     189
        0   40101   10101   20101   30101
 
      170     150     169     171     190
        0   40101   10101   20101   30101
 
      171     151     170     172     191
        0   40101   10101   20101   30101
 
      172     152     171     173     192
        0   40101   10101   20101   30101
 
      173     153     172     174     193
        0   40101   10101   20101   30101
 
      174     154     173     175     194
        0   40101   10101   20101   30101
 
      175     155     174     176     195
        0   40101   10101   20101   30101
 
      176     156     175     177     196
        0   40101   10101   20101   30101
 
      177     157     176     178     197
        0   40101   10101   20101   30101
 
      178     158     177     179     198
        0   40101   10101   20101   30101
 
      179     159     178     180     199
        0   40101   10101   20101   30101
 
      180     160     179     200
        0   40101   10101   30101
 
      181     161     182     201
        0   40101   20101   30101
 
      182     162     181     183     202
        0   40101   10101   20101   30101
 
      183     163     182     184     203
        0   40101   10101   20101   30101
 
      184     164     183     204
        0   40101   10101   30101
 


 


 


 


 
      189     169     190     209
        0   40101   20101   30101
 
      190     170     189     191     210
        0   40101   10101   20101   30101
 
      191     171     190     192     211
        0   40101   10101   20101   30101
 
      192     172     191     193     212
        0   40101   10101   20101   30101
 
      193     173     192     194     213
        0   40101   10101   20101   30101
 
      194     174     193     195     214
        0   40101   10101   20101   30101
 
      195     175     194     196     215
        0   40101   10101   20101   30101
 
      196     176     195     197     216
        0   40101   10101   20101   30101
 
      197     177     196     198     217
        0   40101   10101   20101   30101
 
      198     178     197     199     218
        0   40101   10101   20101   30101
 
      199     179     198     200     219
        0   40101   10101   20101   30101
 
      200     180     199     220
        0   40101   10101   30101
 
      201     181     202     221
        0   40101   20101   30101
 
      202     182     201     203     222
        0   40101   10101   20101   30101
 
      203     183     202     204     223
        0   40101   10101   20101   30101
 
      204     184     203     224
        0   40101   10101   30101
 


 


 


 


 
      209     189     210     229
        0   40101   20101   30101
 
      210     190     209     211     230
        0   40101   10101   20101   30101
 
      211     191     210     212     231
        0   40101   10101   20101   30101
 
      212     192     211     213     232
        0   40101   10101   20101   30101
 
      213     193     212     214     233
        0   40101   10101   20101   30101
 
      214     194     213     215     234
        0   40101   10101   20101   30101
 
      215     195     214     216     235
        0   40101   10101   20101   30101
 
      216     196     215     217     236
        0   40101   10101   20101   30101
 
      217     197     216     218     237
        0   40101   10101   20101   30101
 
      218     198     217     219     238
        0   40101   10101   20101   30101
 
      219     199     218     220     239
        0   40101   10101   20101   30101
 
      220     200     219     240
        0   40101   10101   30101
 
      221     201     222     241
        0   40101   20101   30101
 
      222     202     221     223     242
        0   40101   10101   20101   30101
 
      223     203     222     224     243
        0   40101   10101   20101   30101
 
      224     204     223     244
        0   40101   10101   30101
 


 


 


 


 
      229     209     230     249
        0   40101   20101   30101
 
      230     210     229     231     250
        0   40101   10101   20101   30101
 
      231     211     230     232     251
        0   40101   10101   20101   30101
 
      232     212     231     233     252
        0   40101   10101   20101   30101
 
      233     213     232     234     253
        0   40101   10101   20101   30101
 
      234     214     233     235     254
        0   40101   10101   20101   30101
 
      235     215     234     236     255
        0   40101   10101   20101   30101
 
      236     216     235     237     256
        0   40101   10101   20101   30101
 
      237     217     236     238     257
        0   40101   10101   20101   30101
 
      238     218     237     239     258
        0   40101   10101   20101   30101
 
      239     219     238     240     259
        0   40101   10101   20101   30101
 
      240     220     239     260
        0   40101   10101   30101
 
      241     221     242     261
        0   40101   20101   30101
 
      242     222     241     243     262
        0   40101   10101   20101   30101
 
      243     223     242     244     263
        0   40101   10101   20101   30101
 
      244     224     243     264
        0   40101   10101   30101
 


 


 


 


 
      249     229     250     269
        0   40101   20101   30101
 
      250     230     249     251     270
        0   40101   10101   20101   30101
 
      251     231     250     252     271
        0   40101   10101   20101   30101
 
      252     232     251     253     272
        0   40101   10101   20101   30101
 
      253     233     252     254     273
        0   40101   10101   20101   30101
 
      254     234     253     255     274
        0   40101   10101   20101   30101
 
      255     235     254     256     275
        0   40101   10101   20101   30101
 
      256     236     255     257     276
        0   40101   10101   20101   30101
 
      257     237     256     258     277
        0   40101   10101   20101   30101
 
      258     238     257     259     278
        0   40101   10101   20101   30101
 
      259     239     258     260     279
        0   40101   10101   20101   30101
 
      260     240     259     280
        0   40101   10101   30101
 
      261     241     262     281
        0   40101   20101   30101
 
      262     242     261     263     282
        0   40101   10101   20101   30101
 
      263     243     262     264     283
        0   40101   10101   20101   30101
 
      264     244     263     284
        0   40101   10101   30101
 


 


 


 


 
      269     249     270     289
        0   40101   20101   30101
 
      270     250     269     271     290
        0   40101   10101   20101   30101
 
      271     251     270     272     291
        0   40101   10101   20101   30101
 
      272     252     271     273     292
        0   40101   10101   20101   30101
 
      273     253     272     274     293
        0   40101   10101   20101   30101
 
      274     254     273     275     294
        0   40101   10101   20101   30101
 
      275     255     274     276     295
        0   40101   10101   20101   30101
 
      276     256     275     277     296
        0   40101   10101   20101   30101
 
      277     257     276     278     297
        0   40101   10101   20101   30101
 
      278     258     277     279     298
        0   40101   10101   20101   30101
 
      279     259     278     280     299
        0   40101   10101   20101   30101
 
      280     260     279     300
        0   40101   10101   30101
 
      281     261     282     301
        0   40101   20101   30101
 
      282     262     281     283     302
        0   40101   10101   20101   30101
 
      283     263     282     284     303
        0   40101   10101   20101   30101
 
      284     264     283     304
        0   40101   10101   30101
 


 


 


 


 
      289     269     290     309
        0   40101   20101   30101
 
      290     270     289     291     310
        0   40101   10101   20101   30101
 
      291     271     290     292     311
        0   40101   10101   20101   30101
 
      292     272     291     293     312
        0   40101   10101   20101   30101
 
      293     273     292     294     313
        0   40101   10101   20101   30101
 
      294     274     293     295     314
        0   40101   10101   20101   30101
 
      295     275     294     296     315
        0   40101   10101   20101   30101
 
      296     276     295     297     316
        0   40101   10101   20101   30101
 
      297     277     296     298     317
        0   40101   10101   20101   30101
 
      298     278     297     299     318
        0   40101   10101   20101   30101
 
      299     279     298     300     319
        0   40101   10101   20101   30101
 
      300     280     299     320
        0   40101   10101   30101
 
      301     281     302     321
        0   40101   20101   30101
 
      302     282     301     303     322
        0   40101   10101   20101   30101
 
      303     283     302     304     323
        0   40101   10101   20101   30101
 
      304     284     303     324
        0   40101   10101   30101
 


 


 


 


 
      309     289     310     329
        0   40101   20101   30101
 
      310     290     309     311     330
        0   40101   10101   20101   30101
 
      311     291     310     312     331
        0   40101   10101   20101   30101
 
      312     292     311     313     332
        0   40101   10101   20101   30101
 
      313     293     312     314     333
        0   40101   10101   20101   30101
 
      314     294     313     315     334
        0   40101   10101   20101   30101
 
      315     295     314     316     335
        0   40101   10101   20101   30101
 
      316     296     315     317     336
        0   40101   10101   20101   30101
 
      317     297     316     318     337
        0   40101   10101   20101   30101
 
      318     298     317     319     338
        0   40101   10101   20101   30101
 
      319     299     318     320     339
        0   40101   10101   20101   30101
 
      320     300     319     340
        0   40101   10101   30101
 
      321     301     322     341
        0   40101   20101   30101
 
      322     302     321     323     342
        0   40101   10101   20101   30101
 
      323     303     322     324     343
        0   40101   10101   20101   30101
 
      324     304     323     344
        0   40101   10101   30101
 


 


 


 


 
      329     309     330     349
        0   40101   20101   30101
 
      330     310     329     331     350
        0   40101   10101   20101   30101
 
      331     311     330     332     351
        0   40101   10101   20101   30101
 
      332     312     331     333     352
        0   40101   10101   20101   30101
 
      333     313     332     334     353
        0   40101   10101   20101   30101
 
      334     314     333     335     354
        0   40101   10101   20101   30101
 
      335     315     334     336     355
        0   40101   10101   20101   30101
 
      336     316     335     337     356
        0   40101   10101   20101   30101
 
      337     317     336     338     357
        0   40101   10101   20101   30101
 
      338     318     337     339     358
        0   40101   10101   20101   30101
 
      339     319     338     340     359
        0   40101   10101   20101   30101
 
      340     320     339     360
        0   40101   10101   30101
 
      341     321     342     361
        0   40101   20101   30101
 
      342     322     341     343     362
        0   40101   10101   20101   30101
 
      343     323     342     344     363
        0   40101   10101   20101   30101
 
      344     324     343     364
        0   40101   10101   30101
 


 


 


 


 
      349     329     350     369
        0   40101   20101   30101
 
      350     330     349     351     370
        0   40101   10101   20101   30101
 
      351     331     350     352     371
        0   40101   10101   20101   30101
 
      352     332     351     353     372
        0   40101   10101   20101   30101
 
      353     333     352     354     373
        0   40101   10101   20101   30101
 
      354     334     353     355     374
        0   40101   10101   20101   30101
 
      355     335     354     356     375
        0   40101   10101   20101   30101
 
      356     336     355     357     376
        0   40101   10101   20101   30101
 
      357     337     356     358     377
        0   40101   10101   20101   30101
 
      358     338     357     359     378
        0   40101   10101   20101   30101
 
      359     339     358     360     379
        0   40101   10101   20101   30101
 
      360     340     359     380
        0   40101   10101   30101
 
      361     341     362     381
        0   40101   20101   30101
 
      362     342     361     363     382
        0   40101   10101   20101   30101
 
      363     343     362     364     383
        0   40101   10101   20101   30101
 
      364     344     363     384
        0   40101   10101   30101
 


 


 


 


 
      369     349     370     389
        0   40101   20101   30101
 
      370     350     369     371     390
        0   40101   10101   20101   30101
 
      371     351     370     372     391
        0   40101   10101   20101   30101
 
      372     352     371     373     392
        0   40101   10101   20101   30101
 
      373     353     372     374     393
        0   40101   10101   20101   30101
 
      374     354     373     375     394
        0   40101   10101   20101   30101
 
      375     355     374     376     395
        0   40101   10101   20101   30101
 
      376     356     375     377     396
        0   40101   10101   20101   30101
 
      377     357     376     378     397
        0   40101   10101   20101   30101
 
      378     358     377     379     398
        0   40101   10101   20101   30101
 
      379     359     378     380     399
        0   40101   10101   20101   30101
 
      380     360     379     400
        0   40101   10101   30101
 
      381     361     382     401
        0   40101   20101   30101
 
      382     362     381     383     402
        0   40101   10101   20101   30101
 
      383     363     382     384     403
        0   40101   10101   20101   30101
 
      384     364     383     404
        0   40101   10101   30101
 


 


 


 


 
      389     369     390     409
        0   40101   20101   30101
 
      390     370     389     391     410
        0   40101   10101   20101   30101
 
      391     371     390     392     411
        0   40101   10101   20101   30101
 
      392     372     391     393     412
        0   40101   10101   20101   30101
 
      393     373     392     394     413
        0   40101   10101   20101   30101
 
      394     374     393     395     414
        0   40101   10101   20101   30101
 
      395     375     394     396     415
        0   40101   10101   20101   30101
 
      396     376     395     397     416
        0   40101   10101   20101   30101
 
      397     377     396     398     417
        0   40101   10101   20101   30101
 
      398     378     397     399     418
        0   40101   10101   20101   30101
 
      399     379     398     400     419
        0   40101   10101   20101   30101
 
      400     380     399     420
        0   40101   10101   30101
 
      401     381     402     421
        0   40101   20101   30101
 
      402     382     401     403     422
        0   40101   10101   20101   30101
 
      403     383     402     404     423
        0   40101   10101   20101   30101
 
      404     384     403     424
        0   40101   10101   30101
 


 


 


 


 
      409     389     410     429
        0   40101   20101   30101
 
      410     390     409     411     430
        0   40101   10101   20101   30101
 
      411     391     410     412     431
        0   40101   10101   20101   30101
 
      412     392     411     413     432
        0   40101   10101   20101   30101
 
      413     393     412     414     433
        0   40101   10101   20101   30101
 
      414     394     413     415     434
        0   40101   10101   20101   30101
 
      415     395     414     416     435
        0   40101   10101   20101   30101
 
      416     396     415     417     436
        0   40101   10101   20101   30101
 
      417     397     416     418     437
        0   40101   10101   20101   30101
 
      418     398     417     419     438
        0   40101   10101   20101   30101
 
      419     399     418     420     439
        0   40101   10101   20101   30101
 
      420     400     419     440
        0   40101   10101   30101
 
      421     401     422     441
        0   40101   20101   30101
 
      422     402     421     423     442
        0   40101   10101   20101   30101
 
      423     403     422     424     443
        0   40101   10101   20101   30101
 
      424     404     423     444
        0   40101   10101   30101
 


 


 
      427     428     447
        0   20101   30101
 
      428     427     429     448
        0   10101   20101   30101
 
      429     409     428     430     449
        0   40101   10101   20101   30101
 
      430     410     429     431     450
        0   40101   10101   20101   30101
 
      431     411     430     432     451
        0   40101   10101   20101   30101
 
      432     412     431     433     452
        0   40101   10101   20101   30101
 
      433     413     432     434     453
        0   40101   10101   20101   30101
 
      434     414     433     435     454
        0   40101   10101   20101   30101
 
      435     415     434     436     455
        0   40101   10101   20101   30101
 
      436     416     435     437     456
        0   40101   10101   20101   30101
 
      437     417     436     438     457
        0   40101   10101   20101   30101
 
      438     418     437     439     458
        0   40101   10101   20101   30101
 
      439     419     438     440     459
        0   40101   10101   20101   30101
 
      440     420     439     460
        0   40101   10101   30101
 
      441     421     442     461
        0   40101   20101   30101
 
      442     422     441     443     462
        0   40101   10101   20101   30101
 
      443     423     442     444     463
        0   40101   10101   20101   30101
 
      444     424     443     445     464
        0   40101   10101   20101   30101
 
      445     444     465
        0   10101   30101
 


 
      447     427     448     467
        0   40101   20101   30101
 
      448     428     447     449     468
        0   40101   10101   20101   30101
 
      449     429     448     450     469
        0   40101   10101   20101   30101
 
      450     430     449     451     470
        0   40101   10101   20101   30101
 
      451     431     450     452     471
        0   40101   10101   20101   30101
 
      452     432     451     453     472
        0   40101   10101   20101   30101
 
      453     433     452     454     473
        0   40101   10101   20101   30101
 
      454     434     453     455     474
        0   40101   10101   20101   30101
 
      455     435     454     456     475
        0   40101   10101   20101   30101
 
      456     436     455     457     476
        0   40101   10101   20101   30101
 
      457     437     456     458     477
        0   40101   10101   20101   30101
 
      458     438     457     459     478
        0   40101   10101   20101   30101
 
      459     439     458     460     479
        0   40101   10101   20101   30101
 
      460     440     459     480
        0   40101   10101   30101
 
      461     441     462     481
        0   40101   20101   30101
 
      462     442     461     463     482
        0   40101   10101   20101   30101
 
      463     443     462     464     483
        0   40101   10101   20101   30101
 
      464     444     463     465     484
        0   40101   10101   20101   30101
 
      465     445     464     466     485
        0   40101   10101   20101   30101
 
      466     465     467     486
        0   10101   20101   30101
 
      467     447     466     468     487
        0   40101   10101   20101   30101
 
      468     448     467     469     488
        0   40101   10101   20101   30101
 
      469     449     468     470     489
        0   40101   10101   20101   30101
 
      470     450     469     471     490
        0   40101   10101   20101   30101
 
      471     451     470     472     491
        0   40101   10101   20101   30101
 
      472     452     471     473     492
        0   40101   10101   20101   30101
 
      473     453     472     474     493
        0   40101   10101   20101   30101
 
      474     454     473     475     494
        0   40101   10101   20101   30101
 
      475     455     474     476     495
        0   40101   10101   20101   30101
 
      476     456     475     477     496
        0   40101   10101   20101   30101
 
      477     457     476     478     497
        0   40101   10101   20101   30101
 
      478     458     477     479     498
        0   40101   10101   20101   30101
 
      479     459     478     480     499
        0   40101   10101   20101   30101
 
      480     460     479     500
        0   40101   10101   30101
 
      481     461     482     501
        0   40101   20101   30101
 
      482     462     481     483     502
        0   40101   10101   20101   30101
 
      483     463     482     484     503
        0   40101   10101   20101   30101
 
      484     464     483     485     504
        0   40101   10101   20101   30101
 
      485     465     484     486     505
        0   40101   10101   20101   30101
 
      486     466     485     487     506
        0   40101   10101   20101   30101
 
      487     467     486     488     507
        0   40101   10101   20101   30101
 
      488     468     487     489     508
        0   40101   10101   20101   30101
 
      489     469     488     490     509
        0   40101   10101   20101   30101
 
      490     470     489     491     510
        0   40101   10101   20101   30101
 
      491     471     490     492     511
        0   40101   10101   20101   30101
 
      492     472     491     493     512
        0   40101   10101   20101   30101
 
      493     473     492     494     513
        0   40101   10101   20101   30101
 
      494     474     493     495     514
        0   40101   10101   20101   30101
 
      495     475     494     496     515
        0   40101   10101   20101   30101
 
      496     476     495     497     516
        0   40101   10101   20101   30101
 
      497     477     496     498     517
        0   40101   10101   20101   30101
 
      498     478     497     499     518
        0   40101   10101   20101   30101
 
      499     479     498     500     519
        0   40101   10101   20101   30101
 
      500     480     499     520
        0   40101   10101   30101
 
      501     481     502     521
        0   40101   20101   30101
 
      502     482     501     503     522
        0   40101   10101   20101   30101
 
      503     483     502     504     523
        0   40101   10101   20101   30101
 
      504     484     503     505     524
        0   40101   10101   20101   30101
 
      505     485     504     506     525
        0   40101   10101   20101   30101
 
      506     486     505     507     526
        0   40101   10101   20101   30101
 
      507     487     506     508     527
        0   40101   10101   20101   30101
 
      508     488     507     509     528
        0   40101   10101   20101   30101
 
      509     489     508     510     529
        0   40101   10101   20101   30101
 
      510     490     509     511     530
        0   40101   10101   20101   30101
 
      511     491     510     512     531
        0   40101   10101   20101   30101
 
      512     492     511     513     532
        0   40101   10101   20101   30101
 
      513     493     512     514     533
        0   40101   10101   20101   30101
 
      514     494     513     515     534
        0   40101   10101   20101   30101
 
      515     495     514     516     535
        0   40101   10101   20101   30101
 
      516     496     515     517     536
        0   40101   10101   20101   30101
 
      517     497     516     518     537
        0   40101   10101   20101   30101
 
      518     498     517     519     538
        0   40101   10101   20101   30101
 
      519     499     518     520     539
        0   40101   10101   20101   30101
 
      520     500     519     540
        0   40101   10101   30101
 
      521     501     522     541
        0   40101   20101   30101
 
      522     502     521     523     542
        0   40101   10101   20101   30101
 
      523     503     522     524     543
        0   40101   10101   20101   30101
 
      524     504     523     525     544
        0   40101   10101   20101   30101
 
      525     505     524     526     545
        0   40101   10101   20101   30101
 
      526     506     525     527     546
        0   40101   10101   20101   30101
 
      527     507     526     528     547
        0   40101   10101   20101   30101
 
      528     508     527     529     548
        0   40101   10101   20101   30101
 
      529     509     528     530     549
        0   40101   10101   20101   30101
 
      530     510     529     531     550
        0   40101   10101   20101   30101
 
      531     511     530     532     551
        0   40101   10101   20101   30101
 
      532     512     531     533     552
        0   40101   10101   20101   30101
 
      533     513     532     534     553
        0   40101   10101   20101   30101
 
      534     514     533     535     554
        0   40101   10101   20101   30101
 
      535     515     534     536     555
        0   40101   10101   20101   30101
 
      536     516     535     537     556
        0   40101   10101   20101   30101
 
      537     517     536     538     557
        0   40101   10101   20101   30101
 
      538     518     537     539     558
        0   40101   10101   20101   30101
 
      539     519     538     540     559
        0   40101   10101   20101   30101
 
      540     520     539     560
        0   40101   10101   30101
 
      541     521     542     561
        0   40101   20101   30101
 
      542     522     541     543     562
        0   40101   10101   20101   30101
 
      543     523     542     544     563
        0   40101   10101   20101   30101
 
      544     524     543     545     564
        0   40101   10101   20101   30101
 
      545     525     544     546     565
        0   40101   10101   20101   30101
 
      546     526     545     547     566
        0   40101   10101   20101   30101
 
      547     527     546     548     567
        0   40101   10101   20101   30101
 
      548     528     547     549     568
        0   40101   10101   20101   30101
 
      549     529     548     550     569
        0   40101   10101   20101   30101
 
      550     530     549     551     570
        0   40101   10101   20101   30101
 
      551     531     550     552     571
        0   40101   10101   20101   30101
 
      552     532     551     553     572
        0   40101   10101   20101   30101
 
      553     533     552     554     573
        0   40101   10101   20101   30101
 
      554     534     553     555     574
        0   40101   10101   20101   30101
 
      555     535     554     556     575
        0   40101   10101   20101   30101
 
      556     536     555     557     576
        0   40101   10101   20101   30101
 
      557     537     556     558     577
        0   40101   10101   20101   30101
 
      558     538     557     559     578
        0   40101   10101   20101   30101
 
      559     539     558     560     579
        0   40101   10101   20101   30101
 
      560     540     559     580
        0   40101   10101   30101
 
      561     541     562     581
        0   40101   20101   30101
 
      562     542     561     563     582
        0   40101   10101   20101   30101
 
      563     543     562     564     583
        0   40101   10101   20101   30101
 
      564     544     563     565     584
        0   40101   10101   20101   30101
 
      565     545     564     566     585
        0   40101   10101   20101   30101
 
      566     546     565     567     586
        0   40101   10101   20101   30101
 
      567     547     566     568     587
        0   40101   10101   20101   30101
 
      568     548     567     569     588
        0   40101   10101   20101   30101
 
      569     549     568     570     589
        0   40101   10101   20101   30101
 
      570     550     569     571     590
        0   40101   10101   20101   30101
 
      571     551     570     572     591
        0   40101   10101   20101   30101
 
      572     552     571     573     592
        0   40101   10101   20101   30101
 
      573     553     572     574     593
        0   40101   10101   20101   30101
 
      574     554     573     575     594
        0   40101   10101   20101   30101
 
      575     555     574     576     595
        0   40101   10101   20101   30101
 
      576     556     575     577     596
        0   40101   10101   20101   30101
 
      577     557     576     578     597
        0   40101   10101   20101   30101
 
      578     558     577     579     598
        0   40101   10101   20101   30101
 
      579     559     578     580     599
        0   40101   10101   20101   30101
 
      580     560     579     600
        0   40101   10101   30101
 
      581     561     582     601
        0   40101   20101   30101
 
      582     562     581     583     602
        0   40101   10101   20101   30101
 
      583     563     582     584     603
        0   40101   10101   20101   30101
 
      584     564     583     585     604
        0   40101   10101   20101   30101
 
      585     565     584     586     605
        0   40101   10101   20101   30101
 
      586     566     585     587     606
        0   40101   10101   20101   30101
 
      587     567     586     588     607
        0   40101   10101   20101   30101
 
      588     568     587     589     608
        0   40101   10101   20101   30101
 
      589     569     588     590     609
        0   40101   10101   20101   30101
 
      590     570     589     591     610
        0   40101   10101   20101   30101
 
      591     571     590     592     611
        0   40101   10101   20101   30101
 
      592     572     591     593     612
        0   40101   10101   20101   30101
 
      593     573     592     594     613
        0   40101   10101   20101   30101
 
      594     574     593     595     614
        0   40101   10101   20101   30101
 
      595     575     594     596     615
        0   40101   10101   20101   30101
 
      596     576     595     597     616
        0   40101   10101   20101   30101
 
      597     577     596     598     617
        0   40101   10101   20101   30101
 
      598     578     597     599     618
        0   40101   10101   20101   30101
 
      599     579     598     600     619
        0   40101   10101   20101   30101
 
      600     580     599     620
        0   40101   10101   30101
 
      601     581     602     621
        0   40101   20101   30101
 
      602     582     601     603     622
        0   40101   10101   20101   30101
 
      603     583     602     604     623
        0   40101   10101   20101   30101
 
      604     584     603     605     624
        0   40101   10101   20101   30101
 
      605     585     604     606     625
        0   40101   10101   20101   30101
 
      606     586     605     607     626
        0   40101   10101   20101   30101
 
      607     587     606     608     627
        0   40101   10101   20101   30101
 
      608     588     607     609     628
        0   40101   10101   20101   30101
 
      609     589     608     610     629
        0   40101   10101   20101   30101
 
      610     590     609     611     630
        0   40101   10101   20101   30101
 
      611     591     610     612     631
        0   40101   10101   20101   30101
 
      612     592     611     613     632
        0   40101   10101   20101   30101
 
      613     593     612     614     633
        0   40101   10101   20101   30101
 
      614     594     613     615     634
        0   40101   10101   20101   30101
 
      615     595     614     616     635
        0   40101   10101   20101   30101
 
      616     596     615     617     636
        0   40101   10101   20101   30101
 
      617     597     616     618     637
        0   40101   10101   20101   30101
 
      618     598     617     619     638
        0   40101   10101   20101   30101
 
      619     599     618     620     639
        0   40101   10101   20101   30101
 
      620     600     619     640
        0   40101   10101   30101
 
      621     601     622
        0   40101   20101
 
      622     602     621     623     642
        0   40101   10101   20101   30101
 
      623     603     622     624     643
        0   40101   10101   20101   30101
 
      624     604     623     625     644
        0   40101   10101   20101   30101
 
      625     605     624     626     645
        0   40101   10101   20101   30101
 
      626     606     625     627     646
        0   40101   10101   20101   30101
 
      627     607     626     628     647
        0   40101   10101   20101   30101
 
      628     608     627     629     648
        0   40101   10101   20101   30101
 
      629     609     628     630     649
        0   40101   10101   20101   30101
 
      630     610     629     631     650
        0   40101   10101   20101   30101
 
      631     611     630     632     651
        0   40101   10101   20101   30101
 
      632     612     631     633     652
        0   40101   10101   20101   30101
 
      633     613     632     634     653
        0   40101   10101   20101   30101
 
      634     614     633     635     654
        0   40101   10101   20101   30101
 
      635     615     634     636     655
        0   40101   10101   20101   30101
 
      636     616     635     637     656
        0   40101   10101   20101   30101
 
      637     617     636     638     657
        0   40101   10101   20101   30101
 
      638     618     637     639     658
        0   40101   10101   20101   30101
 
      639     619     638     640     659
        0   40101   10101   20101   30101
 
      640     620     639     660
        0   40101   10101   30101
 


 
      642     622     643
        0   40101   20101
 
      643     623     642     644     663
        0   40101   10101   20101   30101
 
      644     624     643     645     664
        0   40101   10101   20101   30101
 
      645     625     644     646     665
        0   40101   10101   20101   30101
 
      646     626     645     647     666
        0   40101   10101   20101   30101
 
      647     627     646     648     667
        0   40101   10101   20101   30101
 
      648     628     647     649     668
        0   40101   10101   20101   30101
 
      649     629     648     650     669
        0   40101   10101   20101   30101
 
      650     630     649     651     670
        0   40101   10101   20101   30101
 
      651     631     650     652     671
        0   40101   10101   20101   30101
 
      652     632     651     653     672
        0   40101   10101   20101   30101
 
      653     633     652     654     673
        0   40101   10101   20101   30101
 
      654     634     653     655     674
        0   40101   10101   20101   30101
 
      655     635     654     656     675
        0   40101   10101   20101   30101
 
      656     636     655     657     676
        0   40101   10101   20101   30101
 
      657     637     656     658     677
        0   40101   10101   20101   30101
 
      658     638     657     659     678
        0   40101   10101   20101   30101
 
      659     639     658     660     679
        0   40101   10101   20101   30101
 
      660     640     659     680
        0   40101   10101   30101
 


 


 
      663     643     664
        0   40101   20101
 
      664     644     663     665     684
        0   40101   10101   20101   30101
 
      665     645     664     666     685
        0   40101   10101   20101   30101
 
      666     646     665     667     686
        0   40101   10101   20101   30101
 
      667     647     666     668     687
        0   40101   10101   20101   30101
 
      668     648     667     669     688
        0   40101   10101   20101   30101
 
      669     649     668     670     689
        0   40101   10101   20101   30101
 
      670     650     669     671     690
        0   40101   10101   20101   30101
 
      671     651     670     672     691
        0   40101   10101   20101   30101
 
      672     652     671     673     692
        0   40101   10101   20101   30101
 
      673     653     672     674     693
        0   40101   10101   20101   30101
 
      674     654     673     675     694
        0   40101   10101   20101   30101
 
      675     655     674     676     695
        0   40101   10101   20101   30101
 
      676     656     675     677     696
        0   40101   10101   20101   30101
 
      677     657     676     678     697
        0   40101   10101   20101   30101
 
      678     658     677     679     698
        0   40101   10101   20101   30101
 
      679     659     678     680     699
        0   40101   10101   20101   30101
 
      680     660     679     700
        0   40101   10101   30101
 


 


 


 
      684     664     685
        0   40101   20101
 
      685     665     684     686     705
        0   40101   10101   20101   30101
 
      686     666     685     687     706
        0   40101   10101   20101   30101
 
      687     667     686     688     707
        0   40101   10101   20101   30101
 
      688     668     687     689     708
        0   40101   10101   20101   30101
 
      689     669     688     690     709
        0   40101   10101   20101   30101
 
      690     670     689     691     710
        0   40101   10101   20101   30101
 
      691     671     690     692     711
        0   40101   10101   20101   30101
 
      692     672     691     693     712
        0   40101   10101   20101   30101
 
      693     673     692     694     713
        0   40101   10101   20101   30101
 
      694     674     693     695     714
        0   40101   10101   20101   30101
 
      695     675     694     696     715
        0   40101   10101   20101   30101
 
      696     676     695     697     716
        0   40101   10101   20101   30101
 
      697     677     696     698     717
        0   40101   10101   20101   30101
 
      698     678     697     699     718
        0   40101   10101   20101   30101
 
      699     679     698     700     719
        0   40101   10101   20101   30101
 
      700     680     699
        0   40101   10101
 


 


 


 


 
      705     685     706     725
        0   40101   20101   30101
 
      706     686     705     707     726
        0   40101   10101   20101   30101
 
      707     687     706     708     727
        0   40101   10101   20101   30101
 
      708     688     707     709     728
        0   40101   10101   20101   30101
 
      709     689     708     710     729
        0   40101   10101   20101   30101
 
      710     690     709     711     730
        0   40101   10101   20101   30101
 
      711     691     710     712     731
        0   40101   10101   20101   30101
 
      712     692     711     713     732
        0   40101   10101   20101   30101
 
      713     693     712     714     733
        0   40101   10101   20101   30101
 
      714     694     713     715     734
        0   40101   10101   20101   30101
 
      715     695     714     716     735
        0   40101   10101   20101   30101
 
      716     696     715     717     736
        0   40101   10101   20101   30101
 
      717     697     716     718     737
        0   40101   10101   20101   30101
 
      718     698     717     719     738
        0   40101   10101   20101   30101
 
      719     699     718     739
        0   40101   10101   30101
 


 


 


 


 


 
      725     705     726
        0   40101   20101
 
      726     706     725     727     746
        0   40101   10101   20101   30101
 
      727     707     726     728     747
        0   40101   10101   20101   30101
 
      728     708     727     729     748
        0   40101   10101   20101   30101
 
      729     709     728     730     749
        0   40101   10101   20101   30101
 
      730     710     729     731     750
        0   40101   10101   20101   30101
 
      731     711     730     732     751
        0   40101   10101   20101   30101
 
      732     712     731     733     752
        0   40101   10101   20101   30101
 
      733     713     732     734     753
        0   40101   10101   20101   30101
 
      734     714     733     735     754
        0   40101   10101   20101   30101
 
      735     715     734     736     755
        0   40101   10101   20101   30101
 
      736     716     735     737     756
        0   40101   10101   20101   30101
 
      737     717     736     738     757
        0   40101   10101   20101   30101
 
      738     718     737     739     758
        0   40101   10101   20101   30101
 
      739     719     738
        0   40101   10101
 


 


 


 


 


 


 
      746     726     747     766
        0   40101   20101   30101
 
      747     727     746     748     767
        0   40101   10101   20101   30101
 
      748     728     747     749     768
        0   40101   10101   20101   30101
 
      749     729     748     750     769
        0   40101   10101   20101   30101
 
      750     730     749     751     770
        0   40101   10101   20101   30101
 
      751     731     750     752     771
        0   40101   10101   20101   30101
 
      752     732     751     753     772
        0   40101   10101   20101   30101
 
      753     733     752     754     773
        0   40101   10101   20101   30101
 
      754     734     753     755     774
        0   40101   10101   20101   30101
 
      755     735     754     756     775
        0   40101   10101   20101   30101
 
      756     736     755     757     776
        0   40101   10101   20101   30101
 
      757     737     756     758     777
        0   40101   10101   20101   30101
 
      758     738     757
        0   40101   10101
 


 


 


 


 


 


 


 
      766     746     767     786
        0   40101   20101   30101
 
      767     747     766     768     787
        0   40101   10101   20101   30101
 
      768     748     767     769     788
        0   40101   10101   20101   30101
 
      769     749     768     770     789
        0   40101   10101   20101   30101
 
      770     750     769     771     790
        0   40101   10101   20101   30101
 
      771     751     770     772     791
        0   40101   10101   20101   30101
 
      772     752     771     773     792
        0   40101   10101   20101   30101
 
      773     753     772     774     793
        0   40101   10101   20101   30101
 
      774     754     773     775     794
        0   40101   10101   20101   30101
 
      775     755     774     776     795
        0   40101   10101   20101   30101
 
      776     756     775     777
        0   40101   10101   20101
 
      777     757     776
        0   40101   10101
 


 


 


 


 


 


 


 


 
      786     766     787
        0   40101   20101
 
      787     767     786     788
        0   40101   10101   20101
 
      788     768     787     789
        0   40101   10101   20101
 
      789     769     788     790
        0   40101   10101   20101
 
      790     770     789     791
        0   40101   10101   20101
 
      791     771     790     792
        0   40101   10101   20101
 
      792     772     791     793
        0   40101   10101   20101
 
      793     773     792     794
        0   40101   10101   20101
 
      794     774     793     795
        0   40101   10101   20101
 
      795     775     794
        0   40101   10101
 


 


 


 


 


 
Allocate budget reader component.
Open budget file in budget reader.
Allocate head reader component.
Open head file in head reader component.
Allocate MODPATH basic data component.
Read MODPATH basic data component.
Read the remainder of the MODPATH simulation data component.
Allocate particle tracking engine component.
Compute range of time steps. Prepare for time step loop                                                                             
Begin TIME_STEP_LOOP
Compute TSMAX                                                                                                                       
Begin TRACKING_INTERVAL_LOOP
Exit TRACKING_INTERVAL_LOOP
Exit TIME_STEP_LOOP
Write endpoint file.
Consolidating pathline segments.
Begin memory deallocation.
Memory deallocation complete.
