  MODFLOW-88/96 to MODFLOW-2K Data Conversion
 
  Length of X array:             200000000
  Maximum number of file names:                   300
  Maximum number of stress periods:                 25000
 
# File generated by Flopy version 3.3.5 on 10/13/2022 at 08:50:00.              
