Get the name of the MODPATH simulation file.
Read the first two records of the simulation file to get mpnamFile and mplistFile ...
Allocate rectangular unstructured grid component.
Allocate time discretization data component ...
Allocate disvMf6Grid.
Read DISV binary grid file.
